<?xml version="1.0" encoding="UTF-8"?>

<!-- generated on 2026-01-04T23:02:26.450016+01:00 by Eclipse SUMO netedit v1_25_0+0747-f63642a8a4b
-->

<routes xmlns:xsi="http://www.w3.org/2001/XMLSchema-instance" xsi:noNamespaceSchemaLocation="http://sumo.dlr.de/xsd/routes_file.xsd">
    <!-- Vehicles, persons and containers (sorted by depart) -->
    <flow id="cf_0" type="DEFAULT_BIKETYPE" begin="0.00" end="3600.00" period="exp(0.33000000000000001554)" from="B0B1" to="B4B5"/>
    <flow id="cf_1" type="DEFAULT_BIKETYPE" begin="0.00" end="3600.00" period="exp(0.33000000000000001554)" from="B5B4" to="B1B0"/>
    <flow id="cf_2" type="DEFAULT_BIKETYPE" begin="0.00" end="3600.00" period="exp(0.33000000000000001554)" from="D0D1" to="D4D5"/>
    <flow id="cf_3" type="DEFAULT_BIKETYPE" begin="0.00" end="3600.00" period="exp(0.33000000000000001554)" from="D5D4" to="D1D0"/>
</routes>
