<?xml version="1.0" encoding="UTF-8"?>

<!-- generated on 2026-01-10T02:50:24.497250+01:00 by Eclipse SUMO netedit v1_25_0+0747-f63642a8a4b
-->

<routes xmlns:xsi="http://www.w3.org/2001/XMLSchema-instance" xsi:noNamespaceSchemaLocation="http://sumo.dlr.de/xsd/routes_file.xsd">
    <!-- Vehicles, persons and containers (sorted by depart) -->
    <flow id="cf_0" type="DEFAULT_BIKETYPE" begin="0.00" end="3600.00" period="exp(0.33000000000000001554)" from="B0B1" to="B4B5" via="B1B2 B2B3 B3B4"/>
    <flow id="cf_1" type="DEFAULT_BIKETYPE" begin="0.00" end="3600.00" period="exp(0.33000000000000001554)" from="B5B4" to="B1B0" via="B4B3 B3B2 B2B1"/>
    <flow id="cf_2" type="DEFAULT_BIKETYPE" begin="0.00" end="3600.00" period="exp(0.33000000000000001554)" from="D0D1" to="D4D5" via="D1D2 D2D3 D3D4"/>
    <flow id="cf_3" type="DEFAULT_BIKETYPE" begin="0.00" end="3600.00" period="exp(0.33000000000000001554)" from="D5D4" to="D1D0" via="D4D3 D3D2 D2D1"/>
</routes>
