<configuration>
  <input>
    <net-file value="ff.net.xml"/>
	  <route-files value="ff_heterogeneous.rou.xml"/>
  </input>
  <time>
    <begin value="0"/>
    <end value="3600"/>
  </time>
</configuration>
